[General]
network = Network
sim-time-limit = 500s
warmup-period = 10s
num-rngs = 3

[Config Sim_1]
**.server.p1 = 0.6
**.server.p2 = 0.3
**.clients.num_clients = 3
**.processor.service_rate = 7000Hz
**.disk.service_rate = 400Hz
**.webServer.serv_rate_w = 100Hz
**.processor.rng-0 = 0
**.disk.rng-0 = 1
**.webServer.rng-0 = 2